*HEADING
Test input file for CalculiX 2.22 *END bug test
*NODE
1, 0.0, 0.0, 0.0
2, 1.0, 0.0, 0.0
3, 0.5, 1.0, 0.0
*ELEMENT, TYPE=C3D4
1, 1, 2, 3, 1
*MATERIAL, NAME=Steel
*ELASTIC
210000, 0.3
*BOUNDARY
1, 1, 3
2, 1, 2
*STEP
*STATIC
*CLOAD
3, 2, -1000
*NODE FILE
U
*END STEP